NW_MG_Analysis/IEEE123Maste_V3_Mod.dss
Clear


New object=circuit.ieee123
!~ basekv=4.16 Bus1=150 pu=1.00 R1=0 X1=0.0001 R0=0 X0=0.0001
!~ basekv=66.00 bus1=SourceBus pu=1.02 R1=0.6 X1=3.0 R0=0.3 X0=5.0 !Based on Diamond
~ basekv=115.00 bus1=SourceBus pu=1.00 z1 = [1.5 8] !

New Transformer.Sub Buses=[Sourcebus 150] Conns=[Delta Wye] kVs=[115 4.16]  kVAs=[5000 5000] XHL=8  %Rs=[0.5, 0.5]

new transformer.reg1a phases=3 windings=2 buses=[150 150r] conns=[wye wye] kvs=[4.16 4.16] kvas=[5000 5000] XHL=.001 %LoadLoss=0.00001 ppm=0.0
new regcontrol.creg1a transformer=reg1a winding=2 vreg=120 band=2 ptratio=20 ctprim=700 R=3 X=7.5

new transformer.DC1_xfmr phases=3 windings=2 buses=[40 401] conns=[wye wye] kvs=[4.16 4.16] kvas=[1200 1200] XHL=2 %LoadLoss=0.00001 ppm=0.0
new transformer.DC2_xfmr phases=3 windings=2 buses=[101 1011] conns=[wye wye] kvs=[4.16 4.16] kvas=[1200 1200] XHL=2 %LoadLoss=0.00001 ppm=0.0


new transformer.MG1_xfmr1 phases=3 windings=2 buses=[30 301] conns=[wye wye] kvs=[4.16 4.16] kvas=[300 300] XHL=2 %LoadLoss=0.00001 ppm=0.0
new transformer.MG2_xfmr1 phases=3 windings=2 buses=[93 931] conns=[wye wye] kvs=[4.16 4.16] kvas=[600 600] XHL=2 %LoadLoss=0.00001 ppm=0.0
new transformer.MG2_xfmr2 phases=3 windings=2 buses=[77 771] conns=[wye wye] kvs=[4.16 4.16] kvas=[600 600] XHL=2 %LoadLoss=0.00001 ppm=0.0


Redirect        IEEELinecodes.DSS

New Line.L115            Bus1=149        Bus2=1          LineCode=1    Length=0.4

New Line.L1     Phases=1 Bus1=1.2        Bus2=2.2        LineCode=10   Length=0.175
New Line.L2     Phases=1 Bus1=1.3        Bus2=3.3        LineCode=11   Length=0.25
New Line.L3     Phases=3 Bus1=1.1.2.3    Bus2=7.1.2.3    LineCode=1    Length=0.3
New Line.L4     Phases=1 Bus1=3.3        Bus2=4.3        LineCode=11   Length=0.2
New Line.L5     Phases=1 Bus1=3.3        Bus2=5.3        LineCode=11   Length=0.325
New Line.L6     Phases=1 Bus1=5.3        Bus2=6.3        LineCode=11   Length=0.25
New Line.L7     Phases=3 Bus1=7.1.2.3    Bus2=8.1.2.3    LineCode=1    Length=0.2
New Line.L8     Phases=1 Bus1=8.2        Bus2=12.2       LineCode=10   Length=0.225
New Line.L9     Phases=1 Bus1=8.1        Bus2=9.1        LineCode=9    Length=0.225
New Line.L10    Phases=3 Bus1=8.1.2.3    Bus2=13.1.2.3   LineCode=1    Length=0.3
New Line.L11    Phases=1 Bus1=9r.1       Bus2=14.1       LineCode=9    Length=0.425
New Line.L12    Phases=1 Bus1=13.3       Bus2=34.3       LineCode=11   Length=0.15
New Line.L13    Phases=3 Bus1=13.1.2.3   Bus2=18.1.2.3   LineCode=2    Length=0.825
New Line.L14    Phases=1 Bus1=14.1       Bus2=11.1       LineCode=9    Length=0.25
New Line.L15    Phases=1 Bus1=14.1       Bus2=10.1       LineCode=9    Length=0.25
New Line.L16    Phases=1 Bus1=15.3       Bus2=16.3       LineCode=11   Length=0.375
New Line.L17    Phases=1 Bus1=15.3       Bus2=17.3       LineCode=11   Length=0.35
New Line.L18    Phases=1 Bus1=18.1       Bus2=19.1       LineCode=9    Length=0.25
!New Line.L19    Phases=3 Bus1=18.1.2.3   Bus2=21.1.2.3   LineCode=2    Length=0.3
New Line.L20    Phases=1 Bus1=19.1       Bus2=20.1       LineCode=9    Length=0.325
New Line.L21    Phases=1 Bus1=21.2       Bus2=22.2       LineCode=10   Length=0.525
New Line.L22    Phases=3 Bus1=21.1.2.3   Bus2=23.1.2.3   LineCode=2    Length=0.25
New Line.L23    Phases=1 Bus1=23.3       Bus2=24.3       LineCode=11   Length=0.55
New Line.L24    Phases=3 Bus1=23.1.2.3   Bus2=25.1.2.3   LineCode=2    Length=0.275
New Line.L25    Phases=2 Bus1=25r.1.3    Bus2=26.1.3     LineCode=7    Length=0.35
New Line.L26    Phases=3 Bus1=25.1.2.3   Bus2=28.1.2.3   LineCode=2    Length=0.2
New Line.L27    Phases=2 Bus1=26.1.3     Bus2=27.1.3     LineCode=7    Length=0.275
New Line.L28    Phases=1 Bus1=26.3       Bus2=31.3       LineCode=11   Length=0.225
New Line.L29    Phases=1 Bus1=27.1       Bus2=33.1       LineCode=9    Length=0.5
New Line.L30    Phases=3 Bus1=28.1.2.3   Bus2=29.1.2.3   LineCode=2    Length=0.3
New Line.L31    Phases=3 Bus1=29.1.2.3   Bus2=30.1.2.3   LineCode=2    Length=0.35
New Line.L32    Phases=3 Bus1=30.1.2.3   Bus2=250.1.2.3  LineCode=2    Length=0.2
New Line.L33    Phases=1 Bus1=31.3       Bus2=32.3       LineCode=11   Length=0.3
New Line.L34    Phases=1 Bus1=34.3       Bus2=15.3       LineCode=11   Length=0.1
!New Line.L35    Phases=2 Bus1=35.1.2     Bus2=36.1.2     LineCode=8    Length=0.65
New Line.L36    Phases=3 Bus1=35.1.2.3   Bus2=40.1.2.3   LineCode=1    Length=0.25
!New Line.L37    Phases=1 Bus1=36.1       Bus2=37.1       LineCode=9    Length=0.3
!New Line.L38    Phases=1 Bus1=36.2       Bus2=38.2       LineCode=10   Length=0.25
!New Line.L39    Phases=1 Bus1=38.2       Bus2=39.2       LineCode=10   Length=0.325
!New Line.L40    Phases=1 Bus1=40.3       Bus2=41.3       LineCode=11   Length=0.325
New Line.L41    Phases=3 Bus1=40.1.2.3   Bus2=42.1.2.3   LineCode=1    Length=0.25
!New Line.L42    Phases=1 Bus1=42.2       Bus2=43.2       LineCode=10   Length=0.5
New Line.L43    Phases=3 Bus1=42.1.2.3   Bus2=44.1.2.3   LineCode=1    Length=0.2
!New Line.L44    Phases=1 Bus1=44.1       Bus2=45.1       LineCode=9    Length=0.2
New Line.L45    Phases=3 Bus1=35.1.2.3   Bus2=151.1.2.3   LineCode=1    Length=0.25
!New Line.L46    Phases=1 Bus1=45.1       Bus2=46.1       LineCode=9    Length=0.3
!New Line.L47    Phases=3 Bus1=47.1.2.3   Bus2=48.1.2.3   LineCode=4    Length=0.15
!New Line.L48    Phases=3 Bus1=47.1.2.3   Bus2=49.1.2.3   LineCode=4    Length=0.25
!New Line.L49    Phases=3 Bus1=49.1.2.3   Bus2=50.1.2.3   LineCode=4    Length=0.25
!New Line.L50    Phases=3 Bus1=50.1.2.3   Bus2=51.1.2.3   LineCode=4    Length=0.25
!New Line.L51    Phases=3 Bus1=51.1.2.3   Bus2=151.1.2.3  LineCode=4    Length=0.5
New Line.L52    Phases=3 Bus1=52.1.2.3   Bus2=53.1.2.3   LineCode=1    Length=0.2
New Line.L53    Phases=3 Bus1=53.1.2.3   Bus2=54.1.2.3   LineCode=1    Length=0.125
New Line.L54    Phases=3 Bus1=54.1.2.3   Bus2=55.1.2.3   LineCode=1    Length=0.275
New Line.L55    Phases=3 Bus1=54.1.2.3   Bus2=57.1.2.3   LineCode=3    Length=0.35
New Line.L56    Phases=3 Bus1=55.1.2.3   Bus2=56.1.2.3   LineCode=1    Length=0.275
New Line.L57    Phases=1 Bus1=57.2       Bus2=58.2       LineCode=10   Length=0.25
New Line.L58    Phases=3 Bus1=57.1.2.3   Bus2=60.1.2.3   LineCode=3    Length=0.75
New Line.L59    Phases=1 Bus1=58.2       Bus2=59.2       LineCode=10   Length=0.25
New Line.L60    Phases=3 Bus1=60.1.2.3   Bus2=61.1.2.3   LineCode=5    Length=0.55
New Line.L61    Phases=3 Bus1=60.1.2.3   Bus2=62.1.2.3   LineCode=12   Length=0.25
New Line.L62    Phases=3 Bus1=62.1.2.3   Bus2=63.1.2.3   LineCode=12   Length=0.175
New Line.L63    Phases=3 Bus1=63.1.2.3   Bus2=64.1.2.3   LineCode=12   Length=0.35
New Line.L64    Phases=3 Bus1=64.1.2.3   Bus2=65.1.2.3   LineCode=12   Length=0.425
New Line.L65    Phases=3 Bus1=65.1.2.3   Bus2=66.1.2.3   LineCode=12   Length=0.325
New Line.L66    Phases=1 Bus1=67.1       Bus2=68.1       LineCode=9    Length=0.2
!New Line.L67    Phases=3 Bus1=67.1.2.3   Bus2=72.1.2.3   LineCode=3    Length=0.275
New Line.L68    Phases=3 Bus1=67.1.2.3   Bus2=97.1.2.3   LineCode=3    Length=0.25
New Line.L69    Phases=1 Bus1=68.1       Bus2=69.1       LineCode=9    Length=0.275
New Line.L70    Phases=1 Bus1=69.1       Bus2=70.1       LineCode=9    Length=0.325
New Line.L71    Phases=1 Bus1=70.1       Bus2=71.1       LineCode=9    Length=0.275
New Line.L72    Phases=1 Bus1=72.3       Bus2=73.3       LineCode=11   Length=0.275
New Line.L73    Phases=3 Bus1=72.1.2.3   Bus2=76.1.2.3   LineCode=3    Length=0.2
New Line.L74    Phases=1 Bus1=73.3       Bus2=74.3       LineCode=11   Length=0.35
New Line.L75    Phases=1 Bus1=74.3       Bus2=75.3       LineCode=11   Length=0.4
New Line.L76    Phases=3 Bus1=76.1.2.3   Bus2=77.1.2.3   LineCode=6    Length=0.4
New Line.L77    Phases=3 Bus1=76.1.2.3   Bus2=86.1.2.3   LineCode=3    Length=0.7
New Line.L78    Phases=3 Bus1=77.1.2.3   Bus2=78.1.2.3   LineCode=6    Length=0.1
New Line.L79    Phases=3 Bus1=78.1.2.3   Bus2=79.1.2.3   LineCode=6    Length=0.225
New Line.L80    Phases=3 Bus1=78.1.2.3   Bus2=80.1.2.3   LineCode=6    Length=0.475
New Line.L81    Phases=3 Bus1=80.1.2.3   Bus2=81.1.2.3   LineCode=6    Length=0.175
New Line.L82    Phases=3 Bus1=81.1.2.3   Bus2=82.1.2.3   LineCode=6    Length=0.25
New Line.L83    Phases=1 Bus1=81.3       Bus2=84.3       LineCode=11   Length=0.675
New Line.L84    Phases=3 Bus1=82.1.2.3   Bus2=83.1.2.3   LineCode=6    Length=0.25
New Line.L85    Phases=1 Bus1=84.3       Bus2=85.3       LineCode=11   Length=0.475
New Line.L86    Phases=3 Bus1=86.1.2.3   Bus2=87.1.2.3   LineCode=6    Length=0.45
New Line.L87    Phases=1 Bus1=87.1       Bus2=88.1       LineCode=9    Length=0.175
New Line.L88    Phases=3 Bus1=87.1.2.3   Bus2=89.1.2.3   LineCode=6    Length=0.275
New Line.L89    Phases=1 Bus1=89.2       Bus2=90.2       LineCode=10   Length=0.25
New Line.L90    Phases=3 Bus1=89.1.2.3   Bus2=91.1.2.3   LineCode=6    Length=0.225
New Line.L91    Phases=1 Bus1=91.3       Bus2=92.3       LineCode=11   Length=0.3
New Line.L92    Phases=3 Bus1=91.1.2.3   Bus2=93.1.2.3   LineCode=6    Length=0.225
New Line.L93    Phases=1 Bus1=93.1       Bus2=94.1       LineCode=9    Length=0.275
New Line.L94    Phases=3 Bus1=93.1.2.3   Bus2=95.1.2.3   LineCode=6    Length=0.3
New Line.L95    Phases=1 Bus1=95.2       Bus2=96.2       LineCode=10   Length=0.2
New Line.L96    Phases=3 Bus1=97.1.2.3   Bus2=98.1.2.3   LineCode=3    Length=0.275
New Line.L97    Phases=3 Bus1=98.1.2.3   Bus2=99.1.2.3   LineCode=3    Length=0.55
New Line.L98    Phases=3 Bus1=99.1.2.3   Bus2=100.1.2.3  LineCode=3    Length=0.3
New Line.L99    Phases=3 Bus1=100.1.2.3  Bus2=450.1.2.3  LineCode=3    Length=0.8
New Line.L118   Phases=3 Bus1=197.1.2.3  Bus2=101.1.2.3  LineCode=3    Length=0.25
!New Line.L100   Phases=1 Bus1=101.3      Bus2=102.3      LineCode=11   Length=0.225
New Line.L101   Phases=3 Bus1=101.1.2.3  Bus2=105.1.2.3  LineCode=3    Length=0.275
!New Line.L102   Phases=1 Bus1=102.3      Bus2=103.3      LineCode=11   Length=0.325
!New Line.L103   Phases=1 Bus1=103.3      Bus2=104.3      LineCode=11   Length=0.7
!New Line.L104   Phases=1 Bus1=105.2      Bus2=106.2      LineCode=10   Length=0.225
New Line.L105   Phases=3 Bus1=105.1.2.3  Bus2=108.1.2.3  LineCode=3    Length=0.325
!New Line.L106   Phases=1 Bus1=106.2      Bus2=107.2      LineCode=10   Length=0.575
!New Line.L107   Phases=1 Bus1=108.1      Bus2=109.1      LineCode=9    Length=0.45
New Line.L108   Phases=3 Bus1=197.1.2.3  Bus2=300.1.2.3  LineCode=3    Length=1
!New Line.L109   Phases=1 Bus1=109.1      Bus2=110.1      LineCode=9    Length=0.3
!New Line.L110   Phases=1 Bus1=110.1      Bus2=111.1      LineCode=9    Length=0.575
!New Line.L111   Phases=1 Bus1=110.1      Bus2=112.1      LineCode=9    Length=0.125
!New Line.L112   Phases=1 Bus1=112.1      Bus2=113.1      LineCode=9    Length=0.525
!New Line.L113   Phases=1 Bus1=113.1      Bus2=114.1      LineCode=9    Length=0.325
New Line.L114   Phases=3 Bus1=135.1.2.3  Bus2=35.1.2.3   LineCode=4    Length=0.375
New Line.L116   Phases=3 Bus1=152.1.2.3  Bus2=52.1.2.3   LineCode=1    Length=0.4
New Line.L117   Phases=3 Bus1=160r.1.2.3 Bus2=67.1.2.3   LineCode=6    Length=0.35


! NORMALLY CLOSED SWITCHES ARE DEFINED AS SHORT LINES
! Could also be defned by setting the Switch=Yes property

New Line.Sw1    phases=3  Bus1=150r   Bus2=149    r1=1e-3 r0=1e-3 x1=0.000 x0=0.000 c1=0.000 c0=0.000 Length=0.001
New Line.Sw2    phases=3  Bus1=13     Bus2=152    r1=1e-3 r0=1e-3 x1=0.000 x0=0.000 c1=0.000 c0=0.000 Length=0.001
New Line.Sw3    phases=3  Bus1=18     Bus2=135    r1=1e-3 r0=1e-3 x1=0.000 x0=0.000 c1=0.000 c0=0.000 Length=0.001
New Line.Sw4    phases=3  Bus1=60     Bus2=160    r1=1e-3 r0=1e-3 x1=0.000 x0=0.000 c1=0.000 c0=0.000 Length=0.001
New Line.Sw5    phases=3  Bus1=97     Bus2=197    r1=1e-3 r0=1e-3 x1=0.000 x0=0.000 c1=0.000 c0=0.000 Length=0.001
New Line.Sw6    phases=3  Bus1=61     Bus2=61s    r1=1e-3 r0=1e-3 x1=0.000 x0=0.000 c1=0.000 c0=0.000 Length=0.001
New Line.Sw7    phases=3  Bus1=151    Bus2=300    r1=1e-3 r0=1e-3  x1=0.000 x0=0.000 c1=0.000 c0=0.000 Length=0.001
New Line.sw8    Phases=3  Bus1=18     Bus2=21    r1=1e-3 r0=1e-3  x1=0.000 x0=0.000 c1=0.000 c0=0.000 Length=0.001
New Line.sw9    Phases=3  Bus1=67     Bus2=72    r1=1e-3 r0=1e-3  x1=0.000 x0=0.000 c1=0.000 c0=0.000 Length=0.001
! Configuration 1
!Edit line.sw3 enabled=false

! Configuration 2
!Edit line.Sw7 enabled=false

! Configuration 3
!Edit line.sw4 enabled=false

! Configuration 4
! Edit line.sw2 enabled=false

! LOAD TRANSFORMER AT 61s/610
! This is a 150 kVA Delta-Delta stepdown from 4160V to 480V.

New Transformer.XFM1  Phases=3   Windings=2 Xhl=2.72
~ wdg=1 bus=61s       conn=delta kV=4.16    kva=150    %r=0.635
~ wdg=2 bus=610       conn=Delta kv=0.48    kva=150    %r=0.635

! CAPACITORS

New Capacitor.C83       Bus1=83      Phases=3     kVAR=600     kV=4.16
New Capacitor.C88a      Bus1=88.1    Phases=1     kVAR=50      kV=2.402
New Capacitor.C90b      Bus1=90.2    Phases=1     kVAR=50      kV=2.402
New Capacitor.C92c      Bus1=92.3    Phases=1     kVAR=50      kV=2.402


!REGULATORS - REDIRECT TO DEFINITIONS FILE
Redirect IEEE123Regulators.DSS
Redirect IEEE123Transformers.DSS

! SPOT LOADS -- REDIRECT INPUT STREAM TO LOAD DEFINITIONS FILE
Redirect IEEE123SecondaryLoads.DSS

Set VoltageBases = [115, 4.16, 0.416]    ! ARRAY OF VOLTAGES IN KV
CalcVoltageBases  ! PERFORMS ZERO LOAD POWER FLOW TO ESTIMATE VOLTAGE BASES

RegControl.creg1a.maxtapchange=1  Delay=15  !Allow only one tap change per solution. This one moves first
RegControl.creg2a.maxtapchange=1  Delay=30  !Allow only one tap change per solution
RegControl.creg3a.maxtapchange=1  Delay=30  !Allow only one tap change per solution
RegControl.creg4a.maxtapchange=1  Delay=30  !Allow only one tap change per solution
RegControl.creg3c.maxtapchange=1  Delay=30  !Allow only one tap change per solution
RegControl.creg4b.maxtapchange=1  Delay=30  !Allow only one tap change per solution
RegControl.creg4c.maxtapchange=1  Delay=30  !Allow only one tap change per solution

! The default maximum control iterations is 10. With so many regulators each moving only one tap at a time,
! this is insufficient for the 123-bus test case, which will need 15 control iterations for the initial solution.
! Therefore, the 'MaxControlIter' option is set to 30 to be safe.

Set MaxControlIter=30

! Solve executes the solution for the present solution mode, which is "snapshot".

New EnergyMeter.Feeder Line.sw1 1

//solve
Buscoords Buscoords.dat   ! load in bus coordinates

new relay.R1 monitoredObj=line.L115 
new relay.RTL1 monitoredObj=line.sw2
new relay.R2 monitoredObj=line.L13
new relay.R3 monitoredObj=line.L19
new relay.RTL2 monitoredObj=line.sw3
new relay.R4 monitoredObj=line.L55
new relay.RTL4 monitoredObj=line.sw4
new relay.R5 monitoredObj=line.L67
new relay.R6 monitoredObj=line.sw5
new relay.RTL3 monitoredObj=line.sw7 
//new recloser.RTL3 monitoredObj=line.sw7 PhaseTrip=1000000 GroundTrip= 1000000 enabled=true
//new fuse.F108 monitoredObj=Line.L107 monitoredterm=1 fusecurve=Klink ratedcurrent=65


!New PVSystem.1 phases=3 bus1=8.1.2.3 kV=4.16 conn=wye irradiance=1 Pmpp=600 kVA=500 pf=1 balanced=true limitcurrent=true vminpu=0.7143
!New PVSystem.2 phases=3 bus1=18.1.2.3 kV=4.16 conn=wye irradiance=1 Pmpp=840 kVA=700 pf=1 balanced=true limitcurrent=true vminpu=0.7143
!New PVSystem.3 phases=3 bus1=28.1.2.3 kV=4.16 conn=wye irradiance=1 Pmpp=600 kVA=500 pf=1 balanced=true limitcurrent=true vminpu=0.7143
!New PVSystem.4 phases=3 bus1=47.1.2.3 kV=4.16 conn=wye irradiance=1 Pmpp=1200 kVA=1000 pf=1 balanced=true limitcurrent=true vminpu=0.7143
!New PVSystem.5 phases=3 bus1=61.1.2.3 kV=4.16 conn=wye irradiance=1 Pmpp=600 kVA=500 pf=1 balanced=true limitcurrent=true vminpu=0.7143
!New PVSystem.6 phases=3 bus1=79.1.2.3 kV=4.16 conn=wye irradiance=1 Pmpp=600 kVA=500 pf=1 balanced=true limitcurrent=true vminpu=0.7143
!New PVSystem.7 phases=3 bus1=95.1.2.3 kV=4.16 conn=wye irradiance=1 Pmpp=1200 kVA=1000 pf=1 balanced=true limitcurrent=true vminpu=0.7143
!New PVSystem.8 phases=3 bus1=101.1.2.3 kV=4.16 conn=wye irradiance=1 Pmpp=600 kVA=500 pf=1 balanced=true limitcurrent=true vminpu=0.7143
!New PVSystem.9 phases=3 bus1=108.1.2.3 kV=4.16 conn=wye irradiance=1 Pmpp=600 kVA=500 pf=1 balanced=true limitcurrent=true vminpu=0.7143

!New Generator.DC1_Gen1 phases=3 bus1=47 kv=4.16 kw=500 kVA=1000 pf=1 model=3
!New Generator.DC1_Gen2 phases=3 bus1=49 kv=4.16 kw=100 kVA=1000 pf=1 model=3


!New Generator.DC2_Gen1 phases=3 bus1=101 kv=4.16 kw=500 kVA=1000 pf=1 model=3
!New Generator.DC2_Gen2 phases=3 bus1=105 kv=4.16 kw=100 kVA=1000 pf=1 model=3

! Moved 1-ph PV to 3-ph bus 
!New Generator.MG1_Gen1 phases=1 bus1=22.2 kv=4.16 conn=wye kw=100 kVA=200 Enabled=Yes
!New Generator.MG1_Gen2 phases=1 bus1=24.3 kv=4.16 conn=wye kw=100 kVA=200  Enabled=Yes

New Generator.MG1_Gen1 phases=3 bus1=21 kv=4.16 conn=wye kw=20 kVA=125 Enabled=Yes
New Generator.MG1_Gen2 phases=3 bus1=23 kv=4.16 conn=wye kw=20 kVA=125  Enabled=Yes
New Generator.MG1_Gen3 phases=3 bus1=28 kv=4.16 conn=wye kw=100 kVA=200 Enabled=Yes
New Generator.MG1_Gen4 phases=3 bus1=301 kv=4.16 conn=wye kw=100 kVA=350 Enabled=Yes

! removed 1-ph PV at bus 75 and added added its power to bus 72
!New Generator.MG2_Gen1 phases=3 bus1=72 kv=4.16 conn=wye kw=100 kVA=200 Enabled=Yes
!New Generator.MG2_Gen2 phases=1 bus1=75.3 kv=4.16 conn=wye kw=100 kVA=200 Enabled=Yes

New Generator.MG2_Gen1 phases=3 bus1=72 kv=4.16 conn=wye kw=20 kVA=300 Enabled=Yes
New Generator.MG2_Gen3 phases=3 bus1=76 kv=4.16 conn=wye kw=50 kVA=500 Enabled=Yes
New Generator.MG2_Gen4 phases=3 bus1=771 kv=4.16 conn=wye kw=50 kVA=750 Enabled=Yes
New Generator.MG2_Gen5 phases=3 bus1=86 kv=4.16 conn=wye kw=50 kVA=300 Enabled=Yes
New Generator.MG2_Gen6 phases=3 bus1=931 kv=4.16 conn=wye kw=50 kVA=750 Enabled=Yes



!New Generator.MG2_Gen1 phases=3 bus1=72 kv=4.16 conn=wye kw=20 kVA=300 Enabled=Yes
!New Generator.MG2_Gen2 phases=1 bus1=75.3 kv=4.16 conn=wye kw=20 kVA=100 Enabled=Yes
!New Generator.MG2_Gen3 phases=3 bus1=76 kv=4.16 conn=wye kw=50 kVA=500 Enabled=No
!New Generator.MG2_Gen4 phases=3 bus1=771 kv=4.16 conn=wye kw=50 kVA=750 Enabled=No
!New Generator.MG2_Gen5 phases=3 bus1=86 kv=4.16 conn=wye kw=20 kVA=300 Enabled=Yes
!New Generator.MG2_Gen6 phases=3 bus1=931 kv=4.16 conn=wye kw=50 kVA=750 Enabled=No
! solve default config
Edit line.sw2 enabled=false
solve
